<?xml version="1.0" encoding="UTF-8"?>

<!-- generated on 2026-06-22T15:20:26.992921+09:00 by Eclipse SUMO netconvert 1.25.0
<netconvertConfiguration xmlns:xsi="http://www.w3.org/2001/XMLSchema-instance" xsi:noNamespaceSchemaLocation="http://sumo.dlr.de/xsd/netconvertConfiguration.xsd">

    <input>
        <sumo-net-file value="sumo/Monaco/default_dense.net.xml"/>
    </input>

    <output>
        <output-file value="sumo/Monaco/gen_37_seed42.net.xml"/>
    </output>

    <processing>
        <geometry.min-radius.fix.railways value="false"/>
        <geometry.avoid-overlap value="false"/>
        <geometry.max-grade.fix value="false"/>
        <offset.disable-normalization value="true"/>
        <lefthand value="0"/>
    </processing>

    <edge_removal>
        <remove-edges.explicit value="-10032, -10049, -10051#0, -10052#0, -10061#4, -10061#5, -10065#0, -10067#0, -10068, -10069#1, -10070#3, -10071#3, -10078#0.29, -10078#2, -10084#1, -10088, -10089#10, -10096#1.78, -10107, -10109.63, -10115#20, -10115#5.48, -10115#50, -10116, -10119#2.44, -10119#6, -10172#1, -10175#1, -10183#1, -10183#11, -10183#13, -10183#5, -10183#8, -10184#1, -10184#2, -E21, -E5, -E54, -E57, -E61, -E65, -E67, -E74, -E78, -E8, -gneE19, -gneE9, -gneE9.82, 10032, 10049, 10051#0, 10052#0, 10061#4, 10061#5, 10065#0, 10067#0, 10068, 10069#1, 10070#3, 10071#3, 10078#0.29, 10078#2, 10084#1, 10088, 10089#10, 10096#1.78, 10107, 10109.63, 10115#20, 10115#5.48, 10115#50, 10116, 10119#2.44, 10119#6, 10172#1, 10175#1, 10183#1, 10183#11, 10183#13, 10183#5, 10183#8, 10184#1, 10184#2, E21, E5, E54, E57, E61, E65, E67, E74, E78, E8, gneE19, gneE9, gneE9.82"/>
    </edge_removal>

    <junctions>
        <no-internal-links value="true"/>
        <no-turnarounds value="true"/>
        <junctions.corner-detail value="5"/>
        <junctions.limit-turn-speed value="-1.00"/>
        <rectangular-lane-cut value="0"/>
    </junctions>

    <pedestrian>
        <walkingareas value="0"/>
    </pedestrian>

</netconvertConfiguration>
-->

<net version="1.20" junctionCornerDetail="5" avoidOverlap="0" xmlns:xsi="http://www.w3.org/2001/XMLSchema-instance" xsi:noNamespaceSchemaLocation="http://sumo.dlr.de/xsd/net_file.xsd">

    <location netOffset="-372770.12,-4843872.33" convBoundary="0.00,0.00,790.95,899.45" origBoundary="7.419972,43.736993,7.430138,43.745152" projParameter="+proj=utm +zone=32 +ellps=WGS84 +datum=WGS84 +units=m +no_defs"/>

    <type id="highway.residential" priority="4" numLanes="1" speed="13.89" disallow="tram rail_urban rail rail_electric ship" oneway="0" sidewalkWidth="1.50"/>
    <type id="highway.secondary" priority="7" numLanes="2" speed="13.89" disallow="pedestrian tram rail_urban rail rail_electric ship" oneway="0" sidewalkWidth="1.50"/>
    <type id="highway.tertiary" priority="6" numLanes="1" speed="13.89" disallow="pedestrian tram rail_urban rail rail_electric ship" oneway="0" sidewalkWidth="1.50"/>

    <edge id="-10031#0" from="9531" to="9316" priority="7" type="highway.secondary" shape="395.17,421.75,64.80 412.51,444.16,63.30 425.88,464.85,62.60">
        <lane id="-10031#0_0" index="0" allow="pedestrian" speed="13.89" length="53.25" width="1.50" shape="405.54,423.47,64.80 410.51,429.89,62.60"/>
        <lane id="-10031#0_1" index="1" disallow="pedestrian tram rail_urban rail rail_electric rail_fast ship cable_car subway" speed="13.89" length="53.25" shape="403.68,424.91,64.80 408.53,431.17,62.60"/>
        <lane id="-10031#0_2" index="2" disallow="pedestrian tram rail_urban rail rail_electric rail_fast ship cable_car subway" speed="13.89" length="53.25" shape="401.15,426.87,64.80 405.83,432.91,62.60"/>
    </edge>
    <edge id="-10031#1" from="8803" to="9531" priority="7" type="highway.secondary" shape="354.05,353.34,67.60 365.40,372.36,67.40 393.12,418.50,64.80 395.17,421.75,64.80">
        <lane id="-10031#1_0" index="0" allow="pedestrian" speed="13.89" length="79.88" width="1.50" shape="360.68,350.50,67.59 371.53,368.69,67.40 398.06,412.84,64.91"/>
        <lane id="-10031#1_1" index="1" disallow="pedestrian tram rail_urban rail rail_electric rail_fast ship cable_car subway" speed="13.89" length="79.88" shape="359.01,352.28,67.59 369.52,369.89,67.40 396.07,414.10,64.91"/>
        <lane id="-10031#1_2" index="2" disallow="pedestrian tram rail_urban rail rail_electric rail_fast ship cable_car subway" speed="13.89" length="79.88" shape="356.73,354.70,67.58 366.77,371.54,67.40 393.37,415.80,64.91"/>
    </edge>
    <edge id="-10043" from="cluster_9154_9919" to="9058" priority="4" type="highway.residential" shape="522.64,174.70,46.40 513.15,167.09,46.80 504.21,160.14,47.90 498.03,158.00,48.40 491.64,159.68,49.00 455.18,173.35,50.50">
        <lane id="-10043_0" index="0" allow="pedestrian" speed="13.89" length="79.29" width="1.50" shape="512.71,171.80,46.90 510.70,170.19,46.80 502.30,163.66,47.90 497.87,162.13,48.40 492.84,163.45,49.00 466.85,173.19,50.50"/>
        <lane id="-10043_1" index="1" disallow="pedestrian tram rail_urban rail rail_electric rail_fast ship cable_car subway" speed="13.89" length="79.29" shape="514.18,169.97,46.90 512.16,168.35,46.80 503.44,161.57,47.90 497.97,159.67,48.40 492.13,161.21,49.00 466.03,170.99,50.50"/>
    </edge>
    <edge id="-10045#0" from="9134" to="8983" priority="4" type="highway.residential">
        <lane id="-10045#0_0" index="0" allow="pedestrian" speed="13.89" length="35.19" width="1.50" shape="731.85,240.11,36.18 752.90,264.85,34.24"/>
        <lane id="-10045#0_1" index="1" disallow="pedestrian tram rail_urban rail rail_electric rail_fast ship cable_car subway" speed="13.89" length="35.19" shape="730.06,241.63,36.18 751.11,266.37,34.24"/>
    </edge>
    <edge id="-10045#1" from="9059" to="9134" priority="4" type="highway.residential">
        <lane id="-10045#1_0" index="0" allow="pedestrian" speed="13.89" length="15.39" width="1.50" shape="728.41,234.67,36.29 731.78,240.02,36.20"/>
        <lane id="-10045#1_1" index="1" disallow="pedestrian tram rail_urban rail rail_electric rail_fast ship cable_car subway" speed="13.89" length="15.39" shape="726.42,235.92,36.29 729.79,241.27,36.20"/>
    </edge>
    <edge id="-10046#0" from="9071" to="10026" priority="4" type="highway.residential" shape="295.84,361.95,72.70 294.34,352.65,71.90 295.55,342.03,71.60 295.90,341.40,71.70 299.57,335.41,71.30 300.76,334.02,70.20 305.67,328.74,70.90 315.00,320.81,70.80">
        <lane id="-10046#0_0" index="0" allow="pedestrian" speed="13.89" length="49.53" width="1.50" shape="291.91,362.38,72.68 290.35,352.74,71.90 291.71,340.80,71.60 292.49,339.41,71.70 296.37,333.08,71.30 297.81,331.39,70.20 302.56,326.28,70.85"/>
        <lane id="-10046#0_1" index="1" disallow="pedestrian tram rail_urban rail rail_electric rail_fast ship cable_car subway" speed="13.89" length="49.53" shape="294.23,362.01,72.68 292.73,352.69,71.90 294.00,341.53,71.60 294.52,340.59,71.70 298.27,334.47,71.30 299.57,332.95,70.20 304.10,328.08,70.83"/>
    </edge>
    <edge id="-10046#1" from="9561" to="9071" priority="4" type="highway.residential" shape="276.02,387.71,75.40 285.57,379.97,74.70 293.86,374.24,73.80 295.87,370.38,73.50 296.28,363.72,72.70 295.84,361.95,72.70">
        <lane id="-10046#1_0" index="0" allow="pedestrian" speed="13.89" length="35.36" width="1.50" shape="279.06,380.16,75.40 283.20,376.81,74.70 290.81,371.55,73.80 291.98,369.30,73.50 292.30,364.08,72.70 292.05,363.09,72.70"/>
        <lane id="-10046#1_1" index="1" disallow="pedestrian tram rail_urban rail rail_electric rail_fast ship cable_car subway" speed="13.89" length="35.36" shape="280.54,381.99,75.40 284.61,378.69,74.70 292.62,373.15,73.80 294.29,369.94,73.50 294.67,363.87,72.70 294.33,362.53,72.70"/>
    </edge>
    <edge id="-10046#5" from="9225" to="cluster_9389_9689" priority="4" type="highway.residential" shape="214.49,434.43,87.10 232.92,418.81,84.80">
        <lane id="-10046#5_0" index="0" allow="pedestrian" speed="13.89" length="29.47" width="1.50" shape="217.64,426.58,87.10 225.42,419.99,83.30"/>
        <lane id="-10046#5_1" index="1" disallow="pedestrian tram rail_urban rail rail_electric rail_fast ship cable_car subway" speed="13.89" length="29.47" shape="219.16,428.37,87.10 226.94,421.78,83.30"/>
    </edge>
    <edge id="-10048" from="9111" to="9803" priority="6" type="highway.tertiary">
        <lane id="-10048_0" index="0" allow="pedestrian" speed="13.89" length="42.16" width="1.50" shape="469.70,535.34,66.30 447.94,518.42,63.80"/>
        <lane id="-10048_1" index="1" disallow="pedestrian tram rail_urban rail rail_electric rail_fast ship cable_car subway" speed="13.89" length="42.16" shape="471.14,533.48,66.30 449.38,516.57,63.80"/>
    </edge>
    <edge id="-10050#0" from="9153" to="9111" priority="6" type="highway.tertiary" shape="500.14,575.35,67.10 487.55,546.52,67.20 477.52,536.42,66.30">
        <lane id="-10050#0_0" index="0" allow="pedestrian" speed="13.89" length="46.04" width="1.50" shape="494.06,571.30,67.12 484.23,548.78,67.20 484.03,548.59,66.30"/>
        <lane id="-10050#0_1" index="1" disallow="pedestrian tram rail_urban rail rail_electric rail_fast ship cable_car subway" speed="13.89" length="46.04" shape="496.21,570.35,67.12 486.20,547.43,67.20 485.70,546.93,66.30"/>
    </edge>
    <edge id="-10050#1" from="9509" to="9153" priority="6" type="highway.tertiary" shape="473.11,605.15,69.50 484.71,594.05,69.10 496.26,582.35,67.00 500.14,575.35,67.10">
        <lane id="-10050#1_0" index="0" allow="pedestrian" speed="13.89" length="40.64" width="1.50" shape="475.50,597.39,69.32 481.94,591.23,69.10 493.07,579.96,67.00 494.58,577.23,67.04"/>
        <lane id="-10050#1_1" index="1" disallow="pedestrian tram rail_urban rail rail_electric rail_fast ship cable_car subway" speed="13.89" length="40.64" shape="477.13,599.09,69.32 483.59,592.91,69.10 494.97,581.38,67.00 496.64,578.37,67.04"/>
    </edge>
    <edge id="-10050#2" from="9963" to="9509" priority="6" type="highway.tertiary" shape="450.37,626.60,73.00 469.18,608.84,70.10 473.11,605.15,69.50">
        <lane id="-10050#2_0" index="0" allow="pedestrian" speed="13.89" length="31.73" width="1.50" shape="453.01,618.68,73.00 462.23,609.97,69.50"/>
        <lane id="-10050#2_1" index="1" disallow="pedestrian tram rail_urban rail rail_electric rail_fast ship cable_car subway" speed="13.89" length="31.73" shape="454.62,620.38,73.00 463.84,611.68,69.50"/>
    </edge>
    <edge id="-10051#1" from="8852" to="9643" priority="4" type="highway.residential" shape="581.55,688.92,66.60 569.46,681.30,66.40 566.54,677.21,67.80 564.66,673.54,67.60 561.24,666.68,67.40">
        <lane id="-10051#1_0" index="0" allow="pedestrian" speed="13.89" length="31.32" width="1.50" shape="579.32,692.18,66.60 566.70,684.23,66.40 563.16,679.27,67.80 561.57,676.17,67.40"/>
        <lane id="-10051#1_1" index="1" disallow="pedestrian tram rail_urban rail rail_electric rail_fast ship cable_car subway" speed="13.89" length="31.32" shape="580.57,690.19,66.60 568.34,682.49,66.40 565.17,678.04,67.80 563.67,675.12,67.40"/>
    </edge>
    <edge id="-10051#2" from="9836" to="8852" priority="4" type="highway.residential" shape="618.44,714.20,70.95 606.82,704.96,69.80 587.14,692.50,66.80 581.55,688.92,66.60">
        <lane id="-10051#2_0" index="0" allow="pedestrian" speed="13.89" length="45.02" width="1.50" shape="615.87,717.20,70.94 604.53,708.18,69.80 585.02,695.83,66.80 579.54,692.33,66.60"/>
        <lane id="-10051#2_1" index="1" disallow="pedestrian tram rail_urban rail rail_electric rail_fast ship cable_car subway" speed="13.89" length="45.02" shape="617.33,715.36,70.94 605.89,706.27,69.80 586.28,693.85,66.80 580.81,690.35,66.60"/>
    </edge>
    <edge id="-10051#3" from="8895" to="9836" priority="4" type="highway.residential" shape="660.01,765.71,70.60 656.61,759.15,72.30 648.48,747.13,71.90 629.05,725.83,71.00 619.73,715.21,70.60 618.44,714.20,70.95">
        <lane id="-10051#3_0" index="0" allow="pedestrian" speed="13.89" length="67.66" width="1.50" shape="653.45,761.64,70.60 653.21,761.17,72.30 645.37,749.58,71.90 626.11,728.46,71.00 617.00,718.09,70.60 616.12,717.40,70.91"/>
        <lane id="-10051#3_1" index="1" disallow="pedestrian tram rail_urban rail rail_electric rail_fast ship cable_car subway" speed="13.89" length="67.66" shape="655.54,760.56,70.60 655.23,759.97,72.30 647.22,748.12,71.90 627.86,726.90,71.00 618.63,716.38,70.60 617.57,715.55,70.92"/>
    </edge>
    <edge id="-10051#4" from="9818" to="8895" priority="4" type="highway.residential">
        <lane id="-10051#4_0" index="0" allow="pedestrian" speed="13.89" length="11.85" width="1.50" shape="659.58,777.95,71.69 658.08,772.99,70.60"/>
        <lane id="-10051#4_1" index="1" disallow="pedestrian tram rail_urban rail rail_electric rail_fast ship cable_car subway" speed="13.89" length="11.85" shape="661.83,777.28,71.69 660.33,772.31,70.60"/>
    </edge>
    <edge id="-10051#5" from="9617" to="9818" priority="4" type="highway.residential" shape="672.62,842.62,72.20 670.24,815.38,72.40 667.42,793.96,72.40 663.40,776.95,71.70">
        <lane id="-10051#5_0" index="0" allow="pedestrian" speed="13.89" length="66.44" width="1.50" shape="668.11,836.34,72.25 666.31,815.81,72.40 663.53,794.67,72.40 659.59,778.00,71.71"/>
        <lane id="-10051#5_1" index="1" disallow="pedestrian tram rail_urban rail rail_electric rail_fast ship cable_car subway" speed="13.89" length="66.44" shape="670.45,836.13,72.25 668.65,815.55,72.40 665.84,794.25,72.40 661.88,777.46,71.71"/>
    </edge>
    <edge id="-10051#6" from="8883" to="9617" priority="4" type="highway.residential">
        <lane id="-10051#6_0" index="0" allow="pedestrian" speed="13.89" length="34.93" width="1.50" shape="678.35,877.30,72.20 670.57,849.85,72.20"/>
        <lane id="-10051#6_1" index="1" disallow="pedestrian tram rail_urban rail rail_electric rail_fast ship cable_car subway" speed="13.89" length="34.93" shape="680.61,876.66,72.20 672.83,849.21,72.20"/>
    </edge>
    <edge id="-10052#1" from="9778" to="9504" priority="6" type="highway.tertiary" shape="471.13,705.43,86.10 487.70,726.19,88.20 529.21,772.48,93.15 540.51,782.80,93.30 551.04,793.93,94.20">
        <lane id="-10052#1_0" index="0" allow="pedestrian" speed="13.89" length="119.73" width="1.50" shape="479.97,710.18,86.10 490.72,723.64,88.20 532.02,769.70,93.15 543.28,779.98,93.30 550.36,787.47,94.20"/>
        <lane id="-10052#1_1" index="1" disallow="pedestrian tram rail_urban rail rail_electric rail_fast ship cable_car subway" speed="13.89" length="119.73" shape="478.14,711.64,86.10 488.92,725.16,88.20 530.35,771.35,93.15 541.63,781.66,93.30 548.66,789.08,94.20"/>
    </edge>
    <edge id="-10052#2" from="8878" to="9778" priority="6" type="highway.tertiary">
        <lane id="-10052#2_0" index="0" allow="pedestrian" speed="13.89" length="24.96" width="1.50" shape="462.44,689.33,84.70 469.11,697.05,86.10"/>
        <lane id="-10052#2_1" index="1" disallow="pedestrian tram rail_urban rail rail_electric rail_fast ship cable_car subway" speed="13.89" length="24.96" shape="460.67,690.86,84.70 467.33,698.59,86.10"/>
    </edge>
    <edge id="-10052#3" from="8781" to="8878" priority="6" type="highway.tertiary" shape="424.39,651.72,81.90 435.89,664.68,82.70 454.88,686.61,84.70">
        <lane id="-10052#3_0" index="0" allow="pedestrian" speed="13.89" length="46.46" width="1.50" shape="432.23,654.61,81.90 438.86,662.08,82.70 453.01,678.42,84.70"/>
        <lane id="-10052#3_1" index="1" disallow="pedestrian tram rail_urban rail rail_electric rail_fast ship cable_car subway" speed="13.89" length="46.46" shape="430.47,656.17,81.90 437.09,663.63,82.70 451.23,679.96,84.70"/>
    </edge>
    <edge id="-10052#4" from="9089" to="8781" priority="6" type="highway.tertiary">
        <lane id="-10052#4_0" index="0" allow="pedestrian" speed="13.89" length="63.48" width="1.50" shape="385.35,601.72,79.60 422.43,643.56,81.90"/>
        <lane id="-10052#4_1" index="1" disallow="pedestrian tram rail_urban rail rail_electric rail_fast ship cable_car subway" speed="13.89" length="63.48" shape="383.60,603.28,79.60 420.67,645.11,81.90"/>
    </edge>
    <edge id="-10052#5" from="9433" to="9089" priority="6" type="highway.tertiary" shape="371.41,593.65,78.70 380.78,602.37,79.50 382.32,604.25,79.60">
        <lane id="-10052#5_0" index="0" allow="pedestrian" speed="13.89" length="15.32" width="1.50" shape="380.86,597.04,78.70 383.67,599.66,79.50 385.30,601.66,79.60"/>
        <lane id="-10052#5_1" index="1" disallow="pedestrian tram rail_urban rail rail_electric rail_fast ship cable_car subway" speed="13.89" length="15.32" shape="379.25,598.76,78.70 381.95,601.27,79.50 383.48,603.15,79.60"/>
    </edge>
    <edge id="-10053#0" from="9309" to="9466" priority="4" type="highway.residential" shape="591.64,291.10,42.80 580.31,279.89,41.90 574.11,274.04,42.20 567.12,266.18,43.25">
        <lane id="-10053#0_0" index="0" allow="pedestrian" speed="13.89" length="35.17" width="1.50" shape="584.18,289.28,42.80 577.57,282.73,41.90 571.27,276.79,42.20 568.54,273.72,43.25"/>
        <lane id="-10053#0_1" index="1" disallow="pedestrian tram rail_urban rail rail_electric rail_fast ship cable_car subway" speed="13.89" length="35.17" shape="585.83,287.61,42.80 579.20,281.04,41.90 572.96,275.16,42.20 570.30,272.16,43.25"/>
    </edge>
    <edge id="-10053#1" from="8932" to="9309" priority="4" type="highway.residential" shape="620.32,230.78,41.60 627.52,236.27,41.10 633.90,245.11,41.10 635.44,255.03,41.10 632.49,261.06,41.10 626.56,267.52,41.40 614.62,276.73,41.70 599.31,286.51,42.20 591.64,291.10,42.80">
        <lane id="-10053#1_0" index="0" allow="pedestrian" speed="13.89" length="87.75" width="1.50" shape="624.19,228.76,41.50 630.38,233.48,41.10 637.66,243.57,41.10 639.53,255.65,41.10 635.79,263.31,41.10 629.24,270.44,41.40 616.89,279.96,41.70 601.39,289.87,42.20 598.94,291.33,42.80"/>
        <lane id="-10053#1_1" index="1" disallow="pedestrian tram rail_urban rail rail_electric rail_fast ship cable_car subway" speed="13.89" length="87.75" shape="622.77,230.63,41.50 628.68,235.14,41.10 635.42,244.49,41.10 637.10,255.28,41.10 633.83,261.97,41.10 627.65,268.70,41.40 615.54,278.04,41.70 600.15,287.87,42.20 597.73,289.32,42.80"/>
    </edge>
    <edge id="-10053#2" from="9466" to="8932" priority="4" type="highway.residential" shape="567.12,266.18,43.25 576.38,256.54,41.20 584.02,249.56,41.20 595.57,240.59,41.20 611.93,231.63,41.10 620.32,230.78,41.60">
        <lane id="-10053#2_0" index="0" allow="pedestrian" speed="13.89" length="65.74" width="1.50" shape="568.82,258.71,43.25 573.62,253.71,41.20 581.47,246.54,41.20 593.40,237.28,41.20 610.74,227.78,41.10 618.07,227.04,41.50"/>
        <lane id="-10053#2_1" index="1" disallow="pedestrian tram rail_urban rail rail_electric rail_fast ship cable_car subway" speed="13.89" length="65.74" shape="570.51,260.34,43.25 575.26,255.39,41.20 582.99,248.34,41.20 594.69,239.25,41.20 611.45,230.07,41.10 618.31,229.38,41.49"/>
    </edge>
    <edge id="-10054" from="9226" to="9460" priority="4" type="highway.residential">
        <lane id="-10054_0" index="0" allow="pedestrian" speed="13.89" length="45.48" width="1.50" shape="597.78,588.64,60.79 567.31,562.44,58.00"/>
        <lane id="-10054_1" index="1" disallow="pedestrian tram rail_urban rail rail_electric rail_fast ship cable_car subway" speed="13.89" length="45.48" shape="599.31,586.86,60.79 568.84,560.65,58.00"/>
    </edge>
    <edge id="-10055" from="9186" to="8976" priority="4" type="highway.residential" shape="692.34,711.76,52.30 675.94,712.29,54.70 657.66,705.15,55.90 652.23,700.94,56.50 642.99,681.98,57.90 636.22,663.48,57.90 631.80,650.55,58.10">
        <lane id="-10055_0" index="0" allow="pedestrian" speed="13.89" length="98.26" width="1.50" shape="679.31,716.13,52.30 675.26,716.26,54.70 655.69,708.62,55.90 649.08,703.50,56.50 639.35,683.53,57.90 632.50,664.80,57.90 629.43,655.83,58.04"/>
        <lane id="-10055_1" index="1" disallow="pedestrian tram rail_urban rail rail_electric rail_fast ship cable_car subway" speed="13.89" length="98.26" shape="679.24,713.78,52.30 675.66,713.90,54.70 656.86,706.56,55.90 650.96,701.98,56.50 641.52,682.61,57.90 634.71,664.01,57.90 631.65,655.07,58.04"/>
    </edge>
    <edge id="-10057" from="9428" to="9226" priority="4" type="highway.residential" shape="623.94,599.32,58.00 618.13,592.74,57.70 613.56,590.58,57.20 604.32,589.07,58.80 600.47,585.74,60.80">
        <lane id="-10057_0" index="0" allow="pedestrian" speed="13.89" length="28.83" width="1.50" shape="618.09,598.66,57.84 615.71,595.96,57.70 612.37,594.39,57.20 602.58,592.79,58.80 598.00,588.83,60.75"/>
        <lane id="-10057_1" index="1" disallow="pedestrian tram rail_urban rail rail_electric rail_fast ship cable_car subway" speed="13.89" length="28.83" shape="619.85,597.10,57.84 617.15,594.05,57.70 613.08,592.12,57.20 603.62,590.58,58.80 599.54,587.05,60.75"/>
    </edge>
    <edge id="-10058#0" from="9013" to="J13" priority="4" type="highway.residential" shape="735.00,575.23,23.60 730.53,557.02,25.20 730.09,555.25,25.40 727.38,537.18,26.31">
        <lane id="-10058#0_0" index="0" allow="pedestrian" speed="13.89" length="39.01" width="1.50" shape="729.43,569.13,23.60 726.69,557.96,25.20 726.21,556.02,25.40 724.80,546.58,26.31"/>
        <lane id="-10058#0_1" index="1" disallow="pedestrian tram rail_urban rail rail_electric rail_fast ship cable_car subway" speed="13.89" length="39.01" shape="731.72,568.57,23.60 728.98,557.40,25.20 728.52,555.56,25.40 727.12,546.23,26.31"/>
    </edge>
    <edge id="-10058#0.38" from="J13" to="9406" priority="4" type="highway.residential" shape="727.38,537.18,26.31 724.45,517.58,27.30 723.03,482.60,27.30 717.27,458.08,27.40 714.51,446.65,28.10">
        <lane id="-10058#0.38_0" index="0" allow="pedestrian" speed="13.89" length="91.95" width="1.50" shape="720.46,516.77,26.31 719.10,483.14,27.30 713.43,458.99,27.40 713.12,457.73,28.10"/>
        <lane id="-10058#0.38_1" index="1" disallow="pedestrian tram rail_urban rail rail_electric rail_fast ship cable_car subway" speed="13.89" length="91.95" shape="722.80,516.42,26.31 721.44,482.82,27.30 715.71,458.45,27.40 715.41,457.18,28.10"/>
    </edge>
    <edge id="-10058#00" from="9013" to="9406" priority="4" type="highway.residential" shape="735.00,575.23,23.60 730.53,557.02,25.20 730.09,555.25,25.40 724.45,517.58,27.30 723.03,482.60,27.30 717.27,458.08,27.40 714.51,446.65,28.10">
        <lane id="-10058#00_0" index="0" allow="pedestrian" speed="13.89" length="130.96" width="1.50" shape="729.43,569.13,23.60 726.69,557.96,25.20 726.21,556.02,25.40 720.51,517.95,27.30 719.10,483.14,27.30 713.43,458.99,27.40 713.12,457.73,28.10"/>
        <lane id="-10058#00_1" index="1" disallow="pedestrian tram rail_urban rail rail_electric rail_fast ship cable_car subway" speed="13.89" length="130.96" shape="731.72,568.57,23.60 728.98,557.40,25.20 728.52,555.56,25.40 722.85,517.73,27.30 721.44,482.82,27.30 715.71,458.45,27.40 715.41,457.18,28.10"/>
    </edge>
    <edge id="-10058#1" from="9388" to="9013" priority="4" type="highway.residential" shape="740.00,588.68,22.90 738.62,586.00,22.90 736.84,582.41,22.90 735.00,575.23,23.60">
        <lane id="-10058#1_0" index="0" allow="pedestrian" speed="13.89" length="14.89" width="1.50" shape="736.27,590.06,22.90 735.09,587.78,22.90 733.12,583.79,22.90 732.94,583.09,23.60"/>
        <lane id="-10058#1_1" index="1" disallow="pedestrian tram rail_urban rail rail_electric rail_fast ship cable_car subway" speed="13.89" length="14.89" shape="738.36,588.99,22.90 737.19,586.72,22.90 735.33,582.97,22.90 735.21,582.50,23.60"/>
    </edge>
    <edge id="-10059" from="9237" to="9429" priority="4" type="highway.residential" shape="552.74,533.61,56.30 550.84,522.33,55.60 551.88,512.78,55.30 557.31,502.59,54.80">
        <lane id="-10059_0" index="0" allow="pedestrian" speed="13.89" length="32.46" width="1.50" shape="547.54,526.52,56.30 546.85,522.45,55.60 547.50,516.47,54.80"/>
        <lane id="-10059_1" index="1" disallow="pedestrian tram rail_urban rail rail_electric rail_fast ship cable_car subway" speed="13.89" length="32.46" shape="549.86,526.13,56.30 549.23,522.38,55.60 549.74,517.63,54.80"/>
    </edge>
    <edge id="-10060" from="9388" to="9300" priority="4" type="highway.residential" shape="740.00,588.68,22.90 754.54,640.53,22.10 762.50,686.34,20.00">
        <lane id="-10060_0" index="0" allow="pedestrian" speed="13.89" length="100.40" width="1.50" shape="743.93,588.07,22.89 758.40,639.66,22.10 766.39,685.66,20.00"/>
        <lane id="-10060_1" index="1" disallow="pedestrian tram rail_urban rail rail_electric rail_fast ship cable_car subway" speed="13.89" length="100.40" shape="741.67,588.71,22.89 756.10,640.18,22.10 764.08,686.07,20.00"/>
    </edge>
    <edge id="-10061#0" from="9532" to="8779" priority="4" type="highway.residential" shape="739.86,727.93,37.40 744.41,740.42,36.50 778.72,827.36,30.40 790.19,842.64,28.00">
        <lane id="-10061#0_0" index="0" allow="pedestrian" speed="13.89" length="126.29" width="1.50" shape="746.28,734.01,37.40 748.10,739.02,36.50 782.20,825.41,30.40 793.35,840.27,28.00"/>
        <lane id="-10061#0_1" index="1" disallow="pedestrian tram rail_urban rail rail_electric rail_fast ship cable_car subway" speed="13.89" length="126.29" shape="744.07,734.81,37.40 745.91,739.85,36.50 780.13,826.57,30.40 791.47,841.68,28.00"/>
    </edge>
    <edge id="-10061#1" from="9207" to="9532" priority="4" type="highway.residential" shape="721.21,677.11,39.75 723.36,683.06,40.80 739.86,727.93,37.40">
        <lane id="-10061#1_0" index="0" allow="pedestrian" speed="13.89" length="54.36" width="1.50" shape="724.98,675.91,39.77 727.07,681.71,40.80 741.29,720.37,37.40"/>
        <lane id="-10061#1_1" index="1" disallow="pedestrian tram rail_urban rail rail_electric rail_fast ship cable_car subway" speed="13.89" length="54.36" shape="722.77,676.71,39.77 724.86,682.51,40.80 739.08,721.18,37.40"/>
    </edge>
    <edge id="-10061#2" from="9233" to="9207" priority="4" type="highway.residential" shape="693.82,584.84,42.00 701.51,617.84,41.80 718.29,668.91,40.90 721.21,677.11,39.75">
        <lane id="-10061#2_0" index="0" allow="pedestrian" speed="13.89" length="96.43" width="1.50" shape="700.28,595.17,41.93 705.32,616.77,41.80 722.03,667.63,40.90 724.88,675.64,39.77"/>
        <lane id="-10061#2_1" index="1" disallow="pedestrian tram rail_urban rail rail_electric rail_fast ship cable_car subway" speed="13.89" length="96.43" shape="697.99,595.70,41.93 703.05,617.41,41.80 719.80,668.39,40.90 722.67,676.43,39.77"/>
    </edge>
    <edge id="-10061#3" from="9528" to="9233" priority="4" type="highway.residential" shape="687.11,556.88,42.30 690.64,572.27,42.00 693.82,584.84,42.00">
        <lane id="-10061#3_0" index="0" allow="pedestrian" speed="13.89" length="28.76" width="1.50" shape="691.79,559.63,42.23 694.48,571.34,42.00 695.90,576.97,42.00"/>
        <lane id="-10061#3_1" index="1" disallow="pedestrian tram rail_urban rail rail_electric rail_fast ship cable_car subway" speed="13.89" length="28.76" shape="689.50,560.16,42.23 692.20,571.89,42.00 693.63,577.55,42.00"/>
    </edge>
    <edge id="-10062" from="9970" to="9058" priority="4" type="highway.residential" shape="478.46,206.98,49.70 470.79,196.94,49.60 461.14,177.91,50.20 455.18,173.35,50.50">
        <lane id="-10062_0" index="0" allow="pedestrian" speed="13.89" length="41.26" width="1.50" shape="468.88,200.94,49.62 467.43,199.05,49.60 460.01,184.41,50.50"/>
        <lane id="-10062_1" index="1" disallow="pedestrian tram rail_urban rail rail_electric rail_fast ship cable_car subway" speed="13.89" length="41.26" shape="470.74,199.52,49.62 469.43,197.79,49.60 461.62,182.39,50.50"/>
    </edge>
    <edge id="-10063" from="9581" to="9680" priority="4" type="highway.residential">
        <lane id="-10063_0" index="0" allow="pedestrian" speed="13.89" length="63.00" width="1.50" shape="637.74,426.89,38.61 605.00,378.74,40.64"/>
        <lane id="-10063_1" index="1" disallow="pedestrian tram rail_urban rail rail_electric rail_fast ship cable_car subway" speed="13.89" length="63.00" shape="639.68,425.57,38.61 606.95,377.42,40.64"/>
    </edge>
    <edge id="-10064#10" from="9266" to="8859" priority="7" type="highway.secondary" shape="730.71,800.79,52.30 710.47,748.89,51.90 708.45,744.63,64.20">
        <lane id="-10064#10_0" index="0" allow="pedestrian" speed="20.00" length="61.73" width="1.50" shape="724.05,803.39,52.30 704.80,754.04,64.20"/>
        <lane id="-10064#10_1" index="1" disallow="pedestrian tram rail_urban rail rail_electric rail_fast ship cable_car subway" speed="20.00" length="61.73" shape="726.24,802.53,52.30 706.93,753.03,64.20"/>
        <lane id="-10064#10_2" index="2" disallow="pedestrian tram rail_urban rail rail_electric rail_fast ship cable_car subway" speed="20.00" length="61.73" shape="729.22,801.37,52.30 709.83,751.66,64.20"/>
    </edge>
    <edge id="-10064#3" from="9429" to="9179" priority="7" type="highway.secondary" shape="557.31,502.59,54.80 533.91,484.50,53.90 501.55,451.75,54.40 489.44,439.62,54.40">
        <lane id="-10064#3_0" index="0" allow="pedestrian" speed="20.00" length="92.80" width="1.50" shape="538.39,497.00,54.80 529.16,489.86,53.90 496.47,456.78,54.40 487.36,447.65,54.40"/>
        <lane id="-10064#3_1" index="1" disallow="pedestrian tram rail_urban rail rail_electric rail_fast ship cable_car subway" speed="20.00" length="92.80" shape="539.82,495.14,54.80 530.72,488.10,53.90 498.14,455.13,54.40 489.02,445.99,54.40"/>
        <lane id="-10064#3_2" index="2" disallow="pedestrian tram rail_urban rail rail_electric rail_fast ship cable_car subway" speed="20.00" length="92.80" shape="541.78,492.61,54.80 532.85,485.70,53.90 500.41,452.88,54.40 491.29,443.73,54.40"/>
    </edge>
    <edge id="-10064#4" from="8789" to="9429" priority="7" type="highway.secondary" shape="607.36,549.45,54.50 586.64,528.54,54.60 566.07,510.64,53.50 557.31,502.59,54.80">