<routes>
    <flow id="0" begin="0" end="1800" from="-10114#2" to="10172#2" vehsPerHour="400" />
    <flow id="1" begin="0" end="1800" from="-10172#2" to="10114#2" vehsPerHour="400" />
    <flow id="2" begin="0" end="1800" from="10089#0" to="10172#2" vehsPerHour="400" />
    <flow id="3" begin="0" end="1800" from="-10172#2" to="-10089#0" vehsPerHour="400" />
    <flow id="4" begin="0" end="1800" from="10096#0" to="10209" vehsPerHour="400" />
    <flow id="5" begin="0" end="1800" from="10209" to="-10096#0" vehsPerHour="400" />
    <flow id="6" begin="0" end="1800" from="-10095" to="10051#6" vehsPerHour="400" />
    <flow id="7" begin="0" end="1800" from="-10051#6" to="10095" vehsPerHour="400" />
    <flow id="8" begin="0" end="1800" from="10197#0" to="10064#10" vehsPerHour="400" />
    <flow id="9" begin="0" end="1800" from="-10064#10" to="-10197#0" vehsPerHour="400" />
    <flow id="10" begin="0" end="1800" from="-10185#2" to="-10061#0" vehsPerHour="400" />
    <flow id="11" begin="0" end="1800" from="10061#0" to="10185#2" vehsPerHour="400" />
    <flow id="12" begin="0" end="1800" from="10182#0" to="-10060" vehsPerHour="400" />
    <flow id="13" begin="0" end="1800" from="10060" to="10182#0" vehsPerHour="400" />
    <flow id="14" begin="0" end="1800" from="10173#0" to="-10071#0" vehsPerHour="400" />
    <flow id="15" begin="0" end="1800" from="10071#0" to="-10173#0" vehsPerHour="400" />
</routes>
