<?xml version="1.0" encoding="UTF-8"?>

<!-- generated on 2025-05-09 16:01:18 by Eclipse SUMO netedit Version 1.21.0
<neteditConfiguration xmlns:xsi="http://www.w3.org/2001/XMLSchema-instance" xsi:noNamespaceSchemaLocation="http://sumo.dlr.de/xsd/neteditConfiguration.xsd">

    <input>
        <sumo-net-file value="D:\Code\gs-project\sumo\Monaco\default.net.xml"/>
    </input>

    <output>
        <output-file value="D:\Code\gs-project\sumo\Monaco\default.net.xml"/>
        <output.street-names value="true"/>
    </output>

    <processing>
        <geometry.min-radius.fix.railways value="false"/>
        <geometry.max-grade.fix value="false"/>
        <offset.disable-normalization value="true"/>
        <lefthand value="0"/>
    </processing>

    <junctions>
        <no-turnarounds value="true"/>
        <junctions.corner-detail value="5"/>
        <junctions.limit-turn-speed value="-1.00"/>
        <rectangular-lane-cut value="0"/>
    </junctions>

    <pedestrian>
        <walkingareas value="0"/>
    </pedestrian>

</neteditConfiguration>
-->

<net version="1.20" junctionCornerDetail="5" xmlns:xsi="http://www.w3.org/2001/XMLSchema-instance" xsi:noNamespaceSchemaLocation="http://sumo.dlr.de/xsd/net_file.xsd">

    <location netOffset="-372770.12,-4843872.33" convBoundary="0.00,0.00,790.95,899.45" origBoundary="7.419972,43.736993,7.430138,43.745152" projParameter="+proj=utm +zone=32 +ellps=WGS84 +datum=WGS84 +units=m +no_defs"/>

    <type id="highway.residential" priority="4" numLanes="1" speed="13.89" disallow="tram rail_urban rail rail_electric ship" oneway="0" sidewalkWidth="1.50"/>
    <type id="highway.secondary" priority="7" numLanes="2" speed="13.89" disallow="pedestrian tram rail_urban rail rail_electric ship" oneway="0" sidewalkWidth="1.50"/>
    <type id="highway.tertiary" priority="6" numLanes="1" speed="13.89" disallow="pedestrian tram rail_urban rail rail_electric ship" oneway="0" sidewalkWidth="1.50"/>

    <edge id=":10026_0" function="internal">
        <lane id=":10026_0_0" index="0" disallow="pedestrian tram rail_urban rail rail_electric rail_fast ship cable_car subway" speed="16.95" length="24.97" shape="328.74,334.41,70.80 321.49,329.90,70.80 315.32,327.75,70.81 310.21,327.96,70.81 306.19,330.54,70.81"/>
    </edge>
    <edge id=":10026_1" function="internal">
        <lane id=":10026_1_0" index="0" disallow="pedestrian tram rail_urban rail rail_electric rail_fast ship cable_car subway" speed="20.00" length="29.43" shape="328.74,334.41,70.80 321.58,329.47,70.83 316.39,326.53,70.85 310.97,323.97,70.87 303.12,320.15,70.90"/>
        <lane id=":10026_1_1" index="1" disallow="pedestrian tram rail_urban rail rail_electric rail_fast ship cable_car subway" speed="20.00" length="29.43" shape="330.27,331.56,70.80 323.09,326.61,70.83 317.88,323.68,70.85 312.44,321.12,70.87 304.57,317.29,70.90"/>
    </edge>
    <edge id=":10026_3" function="internal">
        <lane id=":10026_3_0" index="0" disallow="pedestrian tram rail_urban rail rail_electric rail_fast ship cable_car subway" speed="16.95" length="2.65" shape="330.27,331.56,70.80 328.60,329.51,70.80"/>
    </edge>
    <edge id=":10026_14" function="internal">
        <lane id=":10026_14_0" index="0" disallow="pedestrian tram rail_urban rail rail_electric rail_fast ship cable_car subway" speed="16.95" length="18.32" shape="328.60,329.51,70.80 326.70,327.16,70.80 326.45,322.46,70.80 329.16,318.48,70.80 334.50,316.28,70.80"/>
    </edge>
    <edge id=":10026_4" function="internal">
        <lane id=":10026_4_0" index="0" disallow="pedestrian tram rail_urban rail rail_electric rail_fast ship cable_car subway" speed="16.95" length="10.50" shape="335.01,319.71,70.80 331.71,320.53,70.80 330.32,321.83,70.80 330.86,323.60,70.80 333.32,325.86,70.80"/>
    </edge>
    <edge id=":10026_5" function="internal">
        <lane id=":10026_5_0" index="0" disallow="pedestrian tram rail_urban rail rail_electric rail_fast ship cable_car subway" speed="13.89" length="31.22" shape="335.01,319.71,70.80 329.38,320.65,70.80 321.30,322.63,70.81 312.87,325.85,70.81 306.19,330.54,70.81"/>
    </edge>
    <edge id=":10026_6" function="internal">
        <lane id=":10026_6_0" index="0" disallow="pedestrian tram rail_urban rail rail_electric rail_fast ship cable_car subway" speed="16.95" length="31.14" shape="335.01,319.71,70.80 330.05,320.57,70.82 322.95,321.31,70.84 314.27,320.64,70.86 304.57,317.29,70.90"/>
    </edge>
    <edge id=":10026_7" function="internal">
        <lane id=":10026_7_0" index="0" disallow="pedestrian tram rail_urban rail rail_electric rail_fast ship cable_car subway" speed="16.95" length="27.86" shape="307.48,311.59,70.89 316.16,315.05,70.86 323.72,316.55,70.84 329.91,316.73,70.82 334.50,316.28,70.80"/>
    </edge>
    <edge id=":10026_8" function="internal">
        <lane id=":10026_8_0" index="0" disallow="pedestrian tram rail_urban rail rail_electric rail_fast ship cable_car subway" speed="20.00" length="29.55" shape="307.48,311.59,70.89 315.39,315.42,70.87 320.86,317.97,70.85 326.10,320.90,70.83 333.32,325.86,70.80"/>
        <lane id=":10026_8_1" index="1" disallow="pedestrian tram rail_urban rail rail_electric rail_fast ship cable_car subway" speed="20.00" length="29.55" shape="306.02,314.44,70.90 313.91,318.27,70.87 319.37,320.83,70.85 324.59,323.76,70.83 331.79,328.71,70.80"/>
    </edge>
    <edge id=":10026_10" function="internal">
        <lane id=":10026_10_0" index="0" disallow="pedestrian tram rail_urban rail rail_electric rail_fast ship cable_car subway" speed="16.95" length="3.56" shape="306.02,314.44,70.90 308.85,316.61,70.88"/>
    </edge>
    <edge id=":10026_15" function="internal">
        <lane id=":10026_15_0" index="0" disallow="pedestrian tram rail_urban rail rail_electric rail_fast ship cable_car subway" speed="16.95" length="16.08" shape="308.85,316.61,70.88 309.88,317.41,70.88 311.20,321.08,70.86 309.96,325.46,70.84 306.19,330.54,70.81"/>
    </edge>
    <edge id=":10026_11" function="internal">
        <lane id=":10026_11_0" index="0" disallow="pedestrian tram rail_urban rail rail_electric rail_fast ship cable_car subway" speed="16.95" length="9.84" shape="304.10,328.08,70.83 305.80,325.69,70.85 306.20,323.57,70.87 305.31,321.72,70.88 303.12,320.15,70.90"/>
    </edge>
    <edge id=":10026_12" function="internal">
        <lane id=":10026_12_0" index="0" disallow="pedestrian tram rail_urban rail rail_electric rail_fast ship cable_car subway" speed="13.89" length="33.01" shape="304.10,328.08,70.83 311.03,323.25,70.83 320.00,319.71,70.82 328.62,317.40,70.81 334.50,316.28,70.80"/>
    </edge>
    <edge id=":10026_13" function="internal">
        <lane id=":10026_13_0" index="0" disallow="pedestrian tram rail_urban rail rail_electric rail_fast ship cable_car subway" speed="16.95" length="10.15" shape="304.10,328.08,70.83 309.90,323.74,70.83 312.75,323.16,70.82"/>
    </edge>
    <edge id=":10026_16" function="internal">
        <lane id=":10026_16_0" index="0" disallow="pedestrian tram rail_urban rail rail_electric rail_fast ship cable_car subway" speed="16.95" length="20.55" shape="312.75,323.16,70.82 316.45,322.40,70.82 323.75,324.06,70.81 331.79,328.71,70.80"/>
    </edge>
    <edge id=":8738_0" function="internal">
        <lane id=":8738_0_0" index="0" disallow="pedestrian tram rail_urban rail rail_electric rail_fast ship cable_car subway" speed="13.89" length="11.20" shape="398.52,855.23,140.49 395.88,854.61,140.50 393.61,855.23,140.50 391.72,857.11,140.50 390.19,860.23,140.50"/>
    </edge>
    <edge id=":8738_1" function="internal">
        <lane id=":8738_1_0" index="0" disallow="pedestrian tram rail_urban rail rail_electric rail_fast ship cable_car subway" speed="13.89" length="14.42" shape="398.52,855.23,140.49 385.02,850.17,140.50"/>
    </edge>
    <edge id=":8738_2" function="internal">
        <lane id=":8738_2_0" index="0" disallow="pedestrian tram rail_urban rail rail_electric rail_fast ship cable_car subway" speed="13.89" length="14.12" shape="386.24,847.21,140.50 399.47,852.15,140.50"/>
    </edge>
    <edge id=":8738_3" function="internal">
        <lane id=":8738_3_0" index="0" disallow="pedestrian tram rail_urban rail rail_electric rail_fast ship cable_car subway" speed="13.89" length="3.35" shape="386.24,847.21,140.50 389.06,849.03,140.50"/>
    </edge>
    <edge id=":8738_6" function="internal">
        <lane id=":8738_6_0" index="0" disallow="pedestrian tram rail_urban rail rail_electric rail_fast ship cable_car subway" speed="13.89" length="11.92" shape="389.06,849.03,140.50 389.30,849.19,140.50 390.98,852.02,140.50 391.27,855.70,140.50 390.19,860.23,140.50"/>
    </edge>
    <edge id=":8738_4" function="internal">
        <lane id=":8738_4_0" index="0" disallow="pedestrian tram rail_urban rail rail_electric rail_fast ship cable_car subway" speed="13.89" length="9.71" shape="387.59,858.21,140.50 388.45,855.51,140.50 388.31,853.28,140.50 387.16,851.49,140.50 385.02,850.17,140.50"/>
    </edge>
    <edge id=":8738_5" function="internal">
        <lane id=":8738_5_0" index="0" disallow="pedestrian tram rail_urban rail rail_electric rail_fast ship cable_car subway" speed="13.89" length="15.08" shape="387.59,858.21,140.50 389.97,854.32,140.50 392.74,852.01,140.50 395.91,851.29,140.50 399.47,852.15,140.50"/>
    </edge>
    <edge id=":8746_0" function="internal">
        <lane id=":8746_0_0" index="0" disallow="pedestrian tram rail_urban rail rail_electric rail_fast ship cable_car subway" speed="13.89" length="1.86" shape="397.74,573.72,78.20 397.24,573.50,78.20 396.87,573.39,78.20 396.48,573.39,78.20 395.94,573.46,78.20"/>
    </edge>
    <edge id=":8770_0" function="internal">
        <lane id=":8770_0_0" index="0" disallow="pedestrian tram rail_urban rail rail_electric rail_fast ship cable_car subway" speed="13.89" length="0.19" shape="221.70,544.25,99.91 221.64,544.06,99.90"/>
    </edge>
    <edge id=":8770_1" function="internal">
        <lane id=":8770_1_0" index="0" disallow="pedestrian tram rail_urban rail rail_electric rail_fast ship cable_car subway" speed="13.89" length="0.35" shape="224.65,542.96,99.90 224.76,543.29,99.91"/>
    </edge>
    <edge id=":8778_0" function="internal">
        <lane id=":8778_0_0" index="0" disallow="pedestrian tram rail_urban rail rail_electric rail_fast ship cable_car subway" speed="13.89" length="6.80" shape="623.38,844.26,85.50 622.46,842.71,85.50 621.24,841.69,85.50 619.73,841.18,85.50 617.92,841.20,85.50"/>
    </edge>
    <edge id=":8778_1" function="internal">
        <lane id=":8778_1_0" index="0" disallow="pedestrian tram rail_urban rail rail_electric rail_fast ship cable_car subway" speed="13.89" length="7.12" shape="625.23,836.20,85.50 624.81,838.22,85.50 624.92,839.66,85.50 625.45,841.07,85.50 626.32,842.99,85.50"/>
    </edge>
    <edge id=":8778_2" function="internal">
        <lane id=":8778_2_0" index="0" disallow="pedestrian tram rail_urban rail rail_electric rail_fast ship cable_car subway" speed="13.89" length="9.37" shape="625.23,836.20,85.50 624.34,838.06,85.50 622.82,839.51,85.50 620.68,840.56,85.50 617.92,841.20,85.50"/>
    </edge>
    <edge id=":8779_0" function="internal">
        <lane id=":8779_0_0" index="0" disallow="pedestrian tram rail_urban rail rail_electric rail_fast ship cable_car subway" speed="13.89" length="4.67" shape="791.47,841.68,28.00 791.55,843.12,28.00 791.15,843.92,28.00 790.27,844.08,28.00 788.91,843.60,28.00"/>
    </edge>
    <edge id=":8781_0" function="internal">
        <lane id=":8781_0_0" index="0" disallow="pedestrian tram rail_urban rail rail_electric rail_fast ship cable_car subway" speed="13.89" length="0.30" shape="423.29,652.89,81.91 423.09,652.67,81.89"/>
    </edge>
    <edge id=":8789_0" function="internal">
        <lane id=":8789_0_0" index="0" disallow="pedestrian tram rail_urban rail rail_electric rail_fast ship cable_car subway" speed="20.00" length="0.30" shape="604.06,552.93,54.50 603.84,552.72,54.50"/>
        <lane id=":8789_0_1" index="1" disallow="pedestrian tram rail_urban rail rail_electric rail_fast ship cable_car subway" speed="20.00" length="0.30" shape="606.33,550.68,54.50 606.12,550.47,54.50"/>
    </edge>
    <edge id=":8789_2" function="internal">
        <lane id=":8789_2_0" index="0" disallow="pedestrian tram rail_urban rail rail_electric rail_fast ship cable_car subway" speed="20.00" length="0.30" shape="610.66,545.96,54.50 610.88,546.18,54.50"/>
        <lane id=":8789_2_1" index="1" disallow="pedestrian tram rail_urban rail rail_electric rail_fast ship cable_car subway" speed="20.00" length="0.30" shape="608.39,548.22,54.50 608.60,548.43,54.50"/>
    </edge>
    <edge id=":8794_0" function="internal">
        <lane id=":8794_0_0" index="0" disallow="pedestrian tram rail_urban rail rail_electric rail_fast ship cable_car subway" speed="13.89" length="11.94" shape="373.42,210.10,55.32 371.95,207.53,55.32 369.83,205.84,55.31 367.08,205.03,55.31 363.68,205.09,55.30"/>
    </edge>
    <edge id=":8794_1" function="internal">
        <lane id=":8794_1_0" index="0" disallow="pedestrian tram rail_urban rail rail_electric rail_fast ship cable_car subway" speed="13.89" length="16.38" shape="373.42,210.10,55.32 367.14,194.97,55.15"/>
    </edge>
    <edge id=":8794_2" function="internal">
        <lane id=":8794_2_0" index="0" disallow="pedestrian tram rail_urban rail rail_electric rail_fast ship cable_car subway" speed="13.89" length="4.01" shape="373.42,210.10,55.32 372.53,206.19,55.29"/>
    </edge>
    <edge id=":8794_12" function="internal">
        <lane id=":8794_12_0" index="0" disallow="pedestrian tram rail_urban rail rail_electric rail_fast ship cable_car subway" speed="13.89" length="10.82" shape="372.53,206.19,55.29 372.51,206.08,55.29 373.16,202.85,55.26 375.38,200.41,55.23 379.16,198.77,55.19"/>
    </edge>
    <edge id=":8794_3" function="internal">
        <lane id=":8794_3_0" index="0" disallow="pedestrian tram rail_urban rail rail_electric rail_fast ship cable_car subway" speed="13.89" length="9.29" shape="380.00,201.86,55.20 377.63,202.89,55.23 376.25,204.41,55.26 375.84,206.43,55.29 376.41,208.95,55.32"/>
    </edge>
    <edge id=":8794_4" function="internal">
        <lane id=":8794_4_0" index="0" disallow="pedestrian tram rail_urban rail rail_electric rail_fast ship cable_car subway" speed="13.89" length="16.66" shape="380.00,201.86,55.20 375.23,203.13,55.23 371.92,203.88,55.25 368.58,204.43,55.27 363.68,205.09,55.30"/>
    </edge>
    <edge id=":8794_5" function="internal">
        <lane id=":8794_5_0" index="0" disallow="pedestrian tram rail_urban rail rail_electric rail_fast ship cable_car subway" speed="13.89" length="4.11" shape="380.00,201.86,55.20 375.92,202.32,55.18"/>
    </edge>
    <edge id=":8794_13" function="internal">
        <lane id=":8794_13_0" index="0" disallow="pedestrian tram rail_urban rail rail_electric rail_fast ship cable_car subway" speed="13.89" length="12.02" shape="375.92,202.32,55.18 372.41,201.33,55.17 369.49,198.88,55.16 367.14,194.97,55.15"/>
    </edge>
    <edge id=":8794_6" function="internal">
        <lane id=":8794_6_0" index="0" disallow="pedestrian tram rail_urban rail rail_electric rail_fast ship cable_car subway" speed="13.89" length="11.52" shape="370.07,193.67,55.15 371.76,196.53,55.16 373.84,198.33,55.17 376.31,199.08,55.18 379.16,198.77,55.19"/>
    </edge>
    <edge id=":8794_7" function="internal">
        <lane id=":8794_7_0" index="0" disallow="pedestrian tram rail_urban rail rail_electric rail_fast ship cable_car subway" speed="13.89" length="16.54" shape="370.07,193.67,55.15 376.41,208.95,55.32"/>
    </edge>
    <edge id=":8794_8" function="internal">
        <lane id=":8794_8_0" index="0" disallow="pedestrian tram rail_urban rail rail_electric rail_fast ship cable_car subway" speed="13.89" length="4.75" shape="370.07,193.67,55.15 371.33,198.13,55.19 371.30,198.25,55.19"/>
    </edge>
    <edge id=":8794_14" function="internal">
        <lane id=":8794_14_0" index="0" disallow="pedestrian tram rail_urban rail rail_electric rail_fast ship cable_car subway" speed="13.89" length="11.40" shape="371.30,198.25,55.19 370.68,201.51,55.22 368.13,203.83,55.26 363.68,205.09,55.30"/>
    </edge>
    <edge id=":8794_9" function="internal">
        <lane id=":8794_9_0" index="0" disallow="pedestrian tram rail_urban rail rail_electric rail_fast ship cable_car subway" speed="13.89" length="9.83" shape="363.25,201.92,55.30 365.96,201.15,55.26 367.52,199.74,55.22 367.91,197.68,55.19 367.14,194.97,55.15"/>
    </edge>
    <edge id=":8794_10" function="internal">
        <lane id=":8794_10_0" index="0" disallow="pedestrian tram rail_urban rail rail_electric rail_fast ship cable_car subway" speed="13.89" length="16.24" shape="363.25,201.92,55.30 368.03,201.27,55.27 371.29,200.74,55.25 374.51,200.01,55.23 379.16,198.77,55.19"/>
    </edge>
    <edge id=":8794_11" function="internal">
        <lane id=":8794_11_0" index="0" disallow="pedestrian tram rail_urban rail rail_electric rail_fast ship cable_car subway" speed="13.89" length="4.82" shape="363.25,201.92,55.30 367.81,201.86,55.31 368.06,201.94,55.31"/>
    </edge>
    <edge id=":8794_15" function="internal">
        <lane id=":8794_15_0" index="0" disallow="pedestrian tram rail_urban rail rail_electric rail_fast ship cable_car subway" speed="13.89" length="11.44" shape="368.06,201.94,55.31 371.52,203.01,55.31 374.38,205.37,55.32 376.41,208.95,55.32"/>
    </edge>
    <edge id=":8803_0" function="internal">
        <lane id=":8803_0_0" index="0" disallow="pedestrian tram rail_urban rail rail_electric rail_fast ship cable_car subway" speed="16.95" length="3.28" shape="351.76,358.87,67.57 351.28,357.98,67.59 350.97,357.35,67.61 350.61,356.76,67.63 349.96,356.00,67.65"/>
        <lane id=":8803_0_1" index="1" disallow="pedestrian tram rail_urban rail rail_electric rail_fast ship cable_car subway" speed="16.95" length="3.28" shape="354.04,356.44,67.58 353.58,355.62,67.60 353.27,355.05,67.61 352.91,354.52,67.63 352.30,353.81,67.65"/>
    </edge>
    <edge id=":8803_2" function="internal">
        <lane id=":8803_2_0" index="0" disallow="pedestrian tram rail_urban rail rail_electric rail_fast ship cable_car subway" speed="16.95" length="2.76" shape="356.98,349.45,67.65 358.88,351.28,67.37"/>
        <lane id=":8803_2_1" index="1" disallow="pedestrian tram rail_urban rail rail_electric rail_fast ship cable_car subway" speed="16.95" length="2.76" shape="354.64,351.63,67.65 356.69,353.61,67.37"/>
    </edge>
    <edge id=":8810_0" function="internal">
        <lane id=":8810_0_0" index="0" disallow="pedestrian tram rail_urban rail rail_electric rail_fast ship cable_car subway" speed="13.89" length="0.31" shape="314.22,662.62,101.10 313.97,662.44,101.10"/>
    </edge>
    <edge id=":8810_1" function="internal">
        <lane id=":8810_1_0" index="0" disallow="pedestrian tram rail_urban rail rail_electric rail_fast ship cable_car subway" speed="13.89" length="0.26" shape="315.88,659.87,101.10 316.09,660.03,101.10"/>
    </edge>
    <edge id=":8828_0" function="internal">
        <lane id=":8828_0_0" index="0" disallow="pedestrian tram rail_urban rail rail_electric rail_fast ship cable_car subway" speed="13.89" length="4.67" shape="600.76,875.74,99.40 600.66,877.18,99.40 600.16,877.92,99.40 599.27,877.97,99.40 597.98,877.32,99.40"/>
    </edge>
    <edge id=":8830_0" function="internal">
        <lane id=":8830_0_0" index="0" disallow="pedestrian tram rail_urban rail rail_electric rail_fast ship cable_car subway" speed="13.89" length="0.28" shape="650.97,789.54,76.89 650.90,789.50,76.90 650.85,789.47,76.91 650.80,789.44,76.92 650.73,789.40,76.93"/>
    </edge>
    <edge id=":8852_0" function="internal">
        <lane id=":8852_0_0" index="0" disallow="pedestrian tram rail_urban rail rail_electric rail_fast ship cable_car subway" speed="13.89" length="0.29" shape="580.81,690.35,66.60 580.57,690.19,66.60"/>
    </edge>
    <edge id=":8852_1" function="internal">
        <lane id=":8852_1_0" index="0" disallow="pedestrian tram rail_urban rail rail_electric rail_fast ship cable_car subway" speed="13.89" length="0.31" shape="582.28,687.49,66.60 582.54,687.65,66.60"/>
    </edge>
    <edge id=":8859_0" function="internal">
        <lane id=":8859_0_0" index="0" disallow="pedestrian tram rail_urban rail rail_electric rail_fast ship cable_car subway" speed="20.00" length="0.25" shape="704.18,746.82,64.20 704.08,746.61,64.15"/>
        <lane id=":8859_0_1" index="1" disallow="pedestrian tram rail_urban rail rail_electric rail_fast ship cable_car subway" speed="20.00" length="0.25" shape="707.07,745.45,64.20 706.95,745.20,64.15"/>
    </edge>
    <edge id=":8859_2" function="internal">
        <lane id=":8859_2_0" index="0" disallow="pedestrian tram rail_urban rail rail_electric rail_fast ship cable_car subway" speed="20.00" length="0.34" shape="712.70,742.39,64.15 712.85,742.71,64.20"/>
        <lane id=":8859_2_1" index="1" disallow="pedestrian tram rail_urban rail rail_electric rail_fast ship cable_car subway" speed="20.00" length="0.34" shape="709.82,743.79,64.15 709.96,744.08,64.20"/>
    </edge>
    <edge id=":8876_0" function="internal">
        <lane id=":8876_0_0" index="0" disallow="pedestrian tram rail_urban rail rail_electric rail_fast ship cable_car subway" speed="13.89" length="0.22" shape="671.21,368.62,34.27 670.98,368.62,34.25"/>
    </edge>
    <edge id=":8876_1" function="internal">
        <lane id=":8876_1_0" index="0" disallow="pedestrian tram rail_urban rail rail_electric rail_fast ship cable_car subway" speed="13.89" length="0.31" shape="671.01,365.42,34.25 671.32,365.43,34.27"/>
    </edge>
    <edge id=":8878_0" function="internal">
        <lane id=":8878_0_0" index="0" disallow="pedestrian tram rail_urban rail rail_electric rail_fast ship cable_car subway" speed="13.89" length="9.27" shape="458.24,692.95,84.70 456.39,691.37,84.70 454.41,690.76,84.70 452.30,691.13,84.70 450.05,692.46,84.70"/>
    </edge>
    <edge id=":8878_1" function="internal">
        <lane id=":8878_1_0" index="0" disallow="pedestrian tram rail_urban rail rail_electric rail_fast ship cable_car subway" speed="13.89" length="14.41" shape="458.24,692.95,84.70 448.82,682.05,84.70"/>
    </edge>
    <edge id=":8878_2" function="internal">
        <lane id=":8878_2_0" index="0" disallow="pedestrian tram rail_urban rail rail_electric rail_fast ship cable_car subway" speed="13.89" length="9.15" shape="448.07,689.95,84.70 449.80,688.12,84.70 450.51,686.20,84.70 450.18,684.17,84.70 448.82,682.05,84.70"/>
    </edge>
    <edge id=":8883_0" function="internal">
        <lane id=":8883_0_0" index="0" disallow="pedestrian tram rail_urban rail rail_electric rail_fast ship cable_car subway" speed="13.89" length="4.67" shape="683.69,875.78,72.20 683.25,877.16,72.20 682.59,877.76,72.20 681.71,877.59,72.20 680.61,876.66,72.20"/>
    </edge>
    <edge id=":8895_0" function="internal">
        <lane id=":8895_0_0" index="0" disallow="pedestrian tram rail_urban rail rail_electric rail_fast ship cable_car subway" speed="13.89" length="0.58" shape="658.60,766.59,70.64 658.55,766.43,70.66 658.51,766.32,70.67 658.47,766.21,70.68 658.39,766.06,70.70"/>
    </edge>
    <edge id=":8895_1" function="internal">
        <lane id=":8895_1_0" index="0" disallow="pedestrian tram rail_urban rail rail_electric rail_fast ship cable_car subway" speed="13.89" length="1.17" shape="661.23,764.59,70.70 661.39,764.89,70.68 661.49,765.11,70.67 661.57,765.33,70.66 661.67,765.67,70.64"/>
    </edge>
    <edge id=":8899_0" function="internal">
        <lane id=":8899_0_0" index="0" disallow="pedestrian tram rail_urban rail rail_electric rail_fast ship cable_car subway" speed="13.89" length="0.19" shape="171.23,634.81,122.60 171.06,634.73,122.60"/>
    </edge>
    <edge id=":8899_1" function="internal">
        <lane id=":8899_1_0" index="0" disallow="pedestrian tram rail_urban rail rail_electric rail_fast ship cable_car subway" speed="13.89" length="0.30" shape="172.32,631.79,122.60 172.59,631.91,122.60"/>
    </edge>
    <edge id=":8917_0" function="internal">
        <lane id=":8917_0_0" index="0" disallow="pedestrian tram rail_urban rail rail_electric rail_fast ship cable_car subway" speed="16.95" length="24.94" shape="332.98,42.82,22.90 325.43,42.78,22.90 319.95,44.42,22.90 314.90,46.21,22.90 308.61,46.65,22.90"/>
    </edge>
    <edge id=":8917_1" function="internal">
        <lane id=":8917_1_0" index="0" disallow="pedestrian tram rail_urban rail rail_electric rail_fast ship cable_car subway" speed="20.00" length="30.07" shape="332.98,42.82,22.90 303.49,36.41,22.90"/>
        <lane id=":8917_1_1" index="1" disallow="pedestrian tram rail_urban rail rail_electric rail_fast ship cable_car subway" speed="20.00" length="30.07" shape="333.46,39.66,22.90 304.19,33.29,22.90"/>
    </edge>
    <edge id=":8917_3" function="internal">
        <lane id=":8917_3_0" index="0" disallow="pedestrian tram rail_urban rail rail_electric rail_fast ship cable_car subway" speed="20.00" length="29.61" shape="305.61,27.05,22.90 334.42,33.33,22.90"/>
        <lane id=":8917_3_1" index="1" disallow="pedestrian tram rail_urban rail rail_electric rail_fast ship cable_car subway" speed="20.00" length="29.61" shape="304.90,30.17,22.90 333.94,36.49,22.90"/>
    </edge>
    <edge id=":8917_5" function="internal">
        <lane id=":8917_5_0" index="0" disallow="pedestrian tram rail_urban rail rail_electric rail_fast ship cable_car subway" speed="16.95" length="2.18" shape="304.90,30.17,22.90 305.38,32.30,22.90"/>
    </edge>
    <edge id=":8917_8" function="internal">
        <lane id=":8917_8_0" index="0" disallow="pedestrian tram rail_urban rail rail_electric rail_fast ship cable_car subway" speed="16.95" length="14.71" shape="305.38,32.30,22.90 308.61,46.65,22.90"/>
    </edge>
    <edge id=":8917_6" function="internal">
        <lane id=":8917_6_0" index="0" disallow="pedestrian tram rail_urban rail rail_electric rail_fast ship cable_car subway" speed="16.95" length="51.65" shape="305.63,43.14,22.90 324.02,44.57,22.90 329.79,43.92,22.90 322.95,41.20,22.90 303.49,36.41,22.90"/>
    </edge>
    <edge id=":8917_7" function="internal">
        <lane id=":8917_7_0" index="0" disallow="pedestrian tram rail_urban rail rail_electric rail_fast ship cable_car subway" speed="16.95" length="29.52" shape="305.63,43.14,22.90 312.23,42.21,22.90 318.13,39.37,22.90 324.85,36.75,22.90 333.94,36.49,22.90"/>
    </edge>
    <edge id=":8926_0" function="internal">
        <lane id=":8926_0_0" index="0" disallow="pedestrian tram rail_urban rail rail_electric rail_fast ship cable_car subway" speed="13.89" length="17.05" shape="60.09,346.49,98.20 57.74,342.11,98.20 55.44,339.56,98.20 52.65,337.33,98.20 48.87,333.94,98.20"/>
    </edge>
    <edge id=":8926_1" function="internal">
        <lane id=":8926_1_0" index="0" disallow="pedestrian tram rail_urban rail rail_electric rail_fast ship cable_car subway" speed="13.89" length="17.67" shape="60.09,346.49,98.20 58.40,341.63,98.19 57.79,337.18,98.18 58.25,333.13,98.16 59.79,329.48,98.15"/>
    </edge>
    <edge id=":8926_2" function="internal">
        <lane id=":8926_2_0" index="0" disallow="pedestrian tram rail_urban rail rail_electric rail_fast ship cable_car subway" speed="13.89" length="15.67" shape="63.30,329.85,98.12 61.82,333.22,98.14 61.26,336.86,98.16 61.62,340.77,98.18 62.91,344.95,98.20"/>
    </edge>
    <edge id=":8926_3" function="internal">
        <lane id=":8926_3_0" index="0" disallow="pedestrian tram rail_urban rail rail_electric rail_fast ship cable_car subway" speed="13.89" length="3.62" shape="63.30,329.85,98.12 61.10,332.73,98.14"/>
    </edge>
    <edge id=":8926_6" function="internal">
        <lane id=":8926_6_0" index="0" disallow="pedestrian tram rail_urban rail rail_electric rail_fast ship cable_car subway" speed="13.89" length="14.52" shape="61.10,332.73,98.14 59.79,334.45,98.15 56.21,336.67,98.17 52.57,336.50,98.18 48.87,333.94,98.20"/>
    </edge>
    <edge id=":8926_4" function="internal">
        <lane id=":8926_4_0" index="0" disallow="pedestrian tram rail_urban rail rail_electric rail_fast ship cable_car subway" speed="13.89" length="10.82" shape="51.14,331.68,98.20 53.39,333.27,98.19 55.59,333.43,98.18 57.72,332.17,98.17 59.79,329.48,98.15"/>
    </edge>
    <edge id=":8926_5" function="internal">
        <lane id=":8926_5_0" index="0" disallow="pedestrian tram rail_urban rail rail_electric rail_fast ship cable_car subway" speed="13.89" length="18.01" shape="51.14,331.68,98.20 55.15,335.25,98.20 58.12,337.59,98.20 60.55,340.30,98.20 62.91,344.95,98.20"/>
    </edge>
    <edge id=":8932_0" function="internal">
        <lane id=":8932_0_0" index="0" disallow="pedestrian tram rail_urban rail rail_electric rail_fast ship cable_car subway" speed="13.89" length="6.02" shape="622.62,234.55,41.60 621.20,233.48,41.60 620.10,232.86,41.60 618.89,232.63,41.60 617.14,232.71,41.60"/>
    </edge>
    <edge id=":8932_1" function="internal">
        <lane id=":8932_1_0" index="0" disallow="pedestrian tram rail_urban rail rail_electric rail_fast ship cable_car subway" speed="13.89" length="7.93" shape="622.52,224.67,41.60 622.45,227.14,41.60 622.77,229.19,41.60 623.47,230.81,41.60 624.56,232.00,41.60"/>
    </edge>
    <edge id=":8932_2" function="internal">
        <lane id=":8932_2_0" index="0" disallow="pedestrian tram rail_urban rail rail_electric rail_fast ship cable_car subway" speed="13.89" length="10.50" shape="622.52,224.67,41.60 621.91,228.01,41.60 620.81,230.46,41.60 619.22,232.03,41.60 617.14,232.71,41.60"/>
    </edge>
    <edge id=":8932_3" function="internal">